src/Test_Network/C11_Master.dss
Clear
New Circuit.IEEE8500  
~ pu=1.05  r1=0  x1=0.001  r0=0  x0=0.001  
Redirect  LineCodes2.dss
Redirect  Triplex_Linecodes.dss
Redirect  C11_Lines.dss
Redirect  C11_Transformers.dss
Redirect  C11_LoadXfmrs.dss    ! Load Transformers
Redirect  C11_Triplex_Lines.dss
Redirect  C11_Loads.dss     ! Balanced Loads
Redirect  C11_Capacitors.dss
Redirect  C11_CapControls.dss
Redirect  C11_Regulators.dss
Set voltagebases=[115, 12.47,  0.48, 0.208]
Calcvoltagebases     ! This also establishes the bus list
Buscoords  C11_Buscoords.dss
