src/Test_Network/C11_Loads.dss
new load.C11_138236b0     phases=2 bus1=C11_sx2673305b.1.2  kv=0.208  status=variable model=1 conn=wye kw=3.89   pf=0.97  vminpu=.88
new load.C11_138237b0     phases=2 bus1=C11_sx3048196b.1.2  kv=0.208  status=variable model=1 conn=wye kw=5.84   pf=0.97  vminpu=.88
new load.C11_138258c0     phases=2 bus1=C11_sx2991911c.1.2  kv=0.208  status=variable model=1 conn=wye kw=6.10   pf=0.97  vminpu=.88
new load.C11_138259c0     phases=2 bus1=C11_sx2973158c.1.2  kv=0.208  status=variable model=1 conn=wye kw=6.10   pf=0.97  vminpu=.88
new load.C11_138260a0     phases=2 bus1=C11_sx3048208a.1.2  kv=0.208  status=variable model=1 conn=wye kw=5.32   pf=0.97  vminpu=.88
new load.C11_138262a0     phases=2 bus1=C11_sx3029502a.1.2  kv=0.208  status=variable model=1 conn=wye kw=17.74  pf=0.97  vminpu=.88
new load.C11_138264b0     phases=2 bus1=C11_sx3104125b.1.2  kv=0.208  status=variable model=1 conn=wye kw=9.73   pf=0.97  vminpu=.88
new load.C11_138265a0     phases=2 bus1=C11_sx3160107a.1.2  kv=0.208  status=variable model=1 conn=wye kw=8.87   pf=0.97  vminpu=.88
new load.C11_138294b0     phases=2 bus1=C11_sx2785516b.1.2  kv=0.208  status=variable model=1 conn=wye kw=5.84   pf=0.97  vminpu=.88
new load.C11_138313a0     phases=2 bus1=C11_sx3141400a.1.2  kv=0.208  status=variable model=1 conn=wye kw=3.55   pf=0.97  vminpu=.88
new load.C11_138342c0     phases=2 bus1=C11_sx2897775c.1.2  kv=0.208  status=variable model=1 conn=wye kw=10.17  pf=0.97  vminpu=.88
new load.C11_138343c0     phases=2 bus1=C11_sx3010565c.1.2  kv=0.208  status=variable model=1 conn=wye kw=4.07   pf=0.97  vminpu=.88
new load.C11_138346c0     phases=2 bus1=C11_sx2916609c.1.2  kv=0.208  status=variable model=1 conn=wye kw=6.10   pf=0.97  vminpu=.88
new load.C11_138371c0     phases=2 bus1=C11_sx2879073c.1.2  kv=0.208  status=variable model=1 conn=wye kw=6.10   pf=0.97  vminpu=.88
new load.C11_138372c0     phases=2 bus1=C11_sx3104126c.1.2  kv=0.208  status=variable model=1 conn=wye kw=4.07   pf=0.97  vminpu=.88
new load.C11_138373c0     phases=2 bus1=C11_sx3029503c.1.2  kv=0.208  status=variable model=1 conn=wye kw=6.10   pf=0.97  vminpu=.88
new load.C11_138374c0     phases=2 bus1=C11_sx2691950c.1.2  kv=0.208  status=variable model=1 conn=wye kw=10.17  pf=0.97  vminpu=.88
new load.C11_138379c0     phases=2 bus1=C11_sx2691951c.1.2  kv=0.208  status=variable model=1 conn=wye kw=10.17  pf=0.97  vminpu=.88
new load.C11_138380c0     phases=2 bus1=C11_sx2879076c.1.2  kv=0.208  status=variable model=1 conn=wye kw=4.07   pf=0.97  vminpu=.88
new load.C11_138404c0     phases=2 bus1=C11_sx2841630c.1.2  kv=0.208  status=variable model=1 conn=wye kw=10.17  pf=0.97  vminpu=.88
new load.C11_138405c0     phases=2 bus1=C11_sx2841629c.1.2  kv=0.208  status=variable model=1 conn=wye kw=15.26  pf=0.97  vminpu=.88
new load.C11_138412c0     phases=2 bus1=C11_sx2785523c.1.2  kv=0.208  status=variable model=1 conn=wye kw=6.10   pf=0.97  vminpu=.88
new load.C11_138413c0     phases=2 bus1=C11_sx3216347c.1.2  kv=0.208  status=variable model=1 conn=wye kw=6.10   pf=0.97  vminpu=.88
new load.C11_138416c0     phases=2 bus1=C11_sx3141388c.1.2  kv=0.208  status=variable model=1 conn=wye kw=4.07   pf=0.97  vminpu=.88
new load.C11_138464c0     phases=2 bus1=C11_sx3066801c.1.2  kv=0.208  status=variable model=1 conn=wye kw=4.07   pf=0.97  vminpu=.88
new load.C11_138465c0     phases=2 bus1=C11_sx2879055c.1.2  kv=0.208  status=variable model=1 conn=wye kw=4.07   pf=0.97  vminpu=.88
new load.C11_138466c0     phases=2 bus1=C11_sx2973144c.1.2  kv=0.208  status=variable model=1 conn=wye kw=10.17  pf=0.97  vminpu=.88
new load.C11_138469c0     phases=2 bus1=C11_sx2785518c.1.2  kv=0.208  status=variable model=1 conn=wye kw=6.10   pf=0.97  vminpu=.88
new load.C11_138470c0     phases=2 bus1=C11_sx2766717c.1.2  kv=0.208  status=variable model=1 conn=wye kw=4.07   pf=0.97  vminpu=.88
new load.C11_138472c0     phases=2 bus1=C11_sx2673309c.1.2  kv=0.208  status=variable model=1 conn=wye kw=10.17  pf=0.97  vminpu=.88
new load.C11_138560a0     phases=2 bus1=C11_sx3104113a.1.2  kv=0.208  status=variable model=1 conn=wye kw=8.87   pf=0.97  vminpu=.88
new load.C11_138561a0     phases=2 bus1=C11_sx3104121a.1.2  kv=0.208  status=variable model=1 conn=wye kw=8.87   pf=0.97  vminpu=.88
new load.C11_138562a0     phases=2 bus1=C11_sx2673310a.1.2  kv=0.208  status=variable model=1 conn=wye kw=8.87   pf=0.97  vminpu=.88
new load.C11_138563a0     phases=2 bus1=C11_sx2916627a.1.2  kv=0.208  status=variable model=1 conn=wye kw=8.87   pf=0.97  vminpu=.88
new load.C11_138564a0     phases=2 bus1=C11_sx2804283a.1.2  kv=0.208  status=variable model=1 conn=wye kw=8.87   pf=0.97  vminpu=.88
new load.C11_138565a0     phases=2 bus1=C11_sx3104122a.1.2  kv=0.208  status=variable model=1 conn=wye kw=8.87   pf=0.97  vminpu=.88
new load.C11_138566a0     phases=2 bus1=C11_sx2785519a.1.2  kv=0.208  status=variable model=1 conn=wye kw=8.87   pf=0.97  vminpu=.88
new load.C11_138567a0     phases=2 bus1=C11_sx2748129a.1.2  kv=0.208  status=variable model=1 conn=wye kw=13.30  pf=0.97  vminpu=.88
new load.C11_138569a0     phases=2 bus1=C11_sx2973151a.1.2  kv=0.208  status=variable model=1 conn=wye kw=5.32   pf=0.97  vminpu=.88
new load.C11_138570a0     phases=2 bus1=C11_sx2748146a.1.2  kv=0.208  status=variable model=1 conn=wye kw=5.32   pf=0.97  vminpu=.88
new load.C11_138571a0     phases=2 bus1=C11_sx2991913a.1.2  kv=0.208  status=variable model=1 conn=wye kw=5.32   pf=0.97  vminpu=.88
new load.C11_138573a0     phases=2 bus1=C11_sx3235253a.1.2  kv=0.208  status=variable model=1 conn=wye kw=8.87   pf=0.97  vminpu=.88
new load.C11_138574a0     phases=2 bus1=C11_sx2991907a.1.2  kv=0.208  status=variable model=1 conn=wye kw=8.87   pf=0.97  vminpu=.88
new load.C11_138581a0     phases=2 bus1=C11_sx2879064a.1.2  kv=0.208  status=variable model=1 conn=wye kw=8.87   pf=0.97  vminpu=.88
new load.C11_138585c0     phases=2 bus1=C11_sx3197637c.1.2  kv=0.208  status=variable model=1 conn=wye kw=4.07   pf=0.97  vminpu=.88
new load.C11_138586c0     phases=2 bus1=C11_sx2860487c.1.2  kv=0.208  status=variable model=1 conn=wye kw=6.10   pf=0.97  vminpu=.88
new load.C11_138641c0     phases=2 bus1=C11_sx2841638c.1.2  kv=0.208  status=variable model=1 conn=wye kw=6.10   pf=0.97  vminpu=.88
new load.C11_138642a0     phases=2 bus1=C11_sx3235256a.1.2  kv=0.208  status=variable model=1 conn=wye kw=5.32   pf=0.97  vminpu=.88
new load.C11_138644a0     phases=2 bus1=C11_sx3197630a.1.2  kv=0.208  status=variable model=1 conn=wye kw=8.87   pf=0.97  vminpu=.88
new load.C11_138645b0     phases=2 bus1=C11_sx3104120b.1.2  kv=0.208  status=variable model=1 conn=wye kw=5.84   pf=0.97  vminpu=.88
new load.C11_138646a0     phases=2 bus1=C11_sx2804251a.1.2  kv=0.208  status=variable model=1 conn=wye kw=3.55   pf=0.97  vminpu=.88
new load.C11_138647c0     phases=2 bus1=C11_sx3254210c.1.2  kv=0.208  status=variable model=1 conn=wye kw=6.10   pf=0.97  vminpu=.88
new load.C11_138649a0     phases=2 bus1=C11_sx3048206a.1.2  kv=0.208  status=variable model=1 conn=wye kw=8.87   pf=0.97  vminpu=.88
new load.C11_138650c0     phases=2 bus1=C11_sx2710510c.1.2  kv=0.208  status=variable model=1 conn=wye kw=4.07   pf=0.97  vminpu=.88
new load.C11_138651c0     phases=2 bus1=C11_sx3197628c.1.2  kv=0.208  status=variable model=1 conn=wye kw=10.17  pf=0.97  vminpu=.88
new load.C11_138652c0     phases=2 bus1=C11_sx2766718c.1.2  kv=0.208  status=variable model=1 conn=wye kw=15.26  pf=0.97  vminpu=.88
new load.C11_138655a0     phases=2 bus1=C11_sx3010556a.1.2  kv=0.208  status=variable model=1 conn=wye kw=5.32   pf=0.97  vminpu=.88
new load.C11_138679a0     phases=2 bus1=C11_sx2710520a.1.2  kv=0.208  status=variable model=1 conn=wye kw=5.32   pf=0.97  vminpu=.88
new load.C11_138680a0     phases=2 bus1=C11_sx2710521a.1.2  kv=0.208  status=variable model=1 conn=wye kw=8.87   pf=0.97  vminpu=.88
new load.C11_138684a0     phases=2 bus1=C11_sx3085396a.1.2  kv=0.208  status=variable model=1 conn=wye kw=8.87   pf=0.97  vminpu=.88
new load.C11_138685a0     phases=2 bus1=C11_sx3122813a.1.2  kv=0.208  status=variable model=1 conn=wye kw=5.32   pf=0.97  vminpu=.88
new load.C11_138716c0     phases=2 bus1=C11_sx3254219c.1.2  kv=0.208  status=variable model=1 conn=wye kw=10.17  pf=0.97  vminpu=.88
new load.C11_138717c0     phases=2 bus1=C11_sx3254220c.1.2  kv=0.208  status=variable model=1 conn=wye kw=10.17  pf=0.97  vminpu=.88
new load.C11_138718c0     phases=2 bus1=C11_sx3104134c.1.2  kv=0.208  status=variable model=1 conn=wye kw=10.17  pf=0.97  vminpu=.88
new load.C11_138719a0     phases=2 bus1=C11_sx2860490a.1.2  kv=0.208  status=variable model=1 conn=wye kw=8.87   pf=0.97  vminpu=.88
new load.C11_138720a0     phases=2 bus1=C11_sx3254218a.1.2  kv=0.208  status=variable model=1 conn=wye kw=8.87   pf=0.97  vminpu=.88
new load.C11_138751b0     phases=2 bus1=C11_sx3066818b.1.2  kv=0.208  status=variable model=1 conn=wye kw=9.73   pf=0.97  vminpu=.88
new load.C11_138752b0     phases=2 bus1=C11_sx2785528b.1.2  kv=0.208  status=variable model=1 conn=wye kw=5.84   pf=0.97  vminpu=.88
new load.C11_138753b0     phases=2 bus1=C11_sx2748130b.1.2  kv=0.208  status=variable model=1 conn=wye kw=9.73   pf=0.97  vminpu=.88
new load.C11_138754b0     phases=2 bus1=C11_sx3254212b.1.2  kv=0.208  status=variable model=1 conn=wye kw=14.59  pf=0.97  vminpu=.88
new load.C11_138755b0     phases=2 bus1=C11_sx2785520b.1.2  kv=0.208  status=variable model=1 conn=wye kw=3.89   pf=0.97  vminpu=.88
new load.C11_138769a0     phases=2 bus1=C11_sx2729411a.1.2  kv=0.208  status=variable model=1 conn=wye kw=3.55   pf=0.97  vminpu=.88
new load.C11_138770a0     phases=2 bus1=C11_sx2897781a.1.2  kv=0.208  status=variable model=1 conn=wye kw=3.55   pf=0.97  vminpu=.88
new load.C11_138771a0     phases=2 bus1=C11_sx3197644a.1.2  kv=0.208  status=variable model=1 conn=wye kw=5.32   pf=0.97  vminpu=.88
new load.C11_138776c0     phases=2 bus1=C11_sx3010566c.1.2  kv=0.208  status=variable model=1 conn=wye kw=6.10   pf=0.97  vminpu=.88
new load.C11_138796b0     phases=2 bus1=C11_sx3236011b.1.2  kv=0.208  status=variable model=1 conn=wye kw=5.84   pf=0.97  vminpu=.88
new load.C11_138797b0     phases=2 bus1=C11_sx3198358b.1.2  kv=0.208  status=variable model=1 conn=wye kw=14.59  pf=0.97  vminpu=.88
new load.C11_138798b0     phases=2 bus1=C11_sx3104859b.1.2  kv=0.208  status=variable model=1 conn=wye kw=5.84   pf=0.97  vminpu=.88
new load.C11_157715b0     phases=2 bus1=C11_sx2936275b.1.2  kv=0.208  status=variable model=1 conn=wye kw=3.89   pf=0.97  vminpu=.88
new load.C11_157716b0     phases=2 bus1=C11_sx3179674b.1.2  kv=0.208  status=variable model=1 conn=wye kw=9.73   pf=0.97  vminpu=.88
new load.C11_157717b0     phases=2 bus1=C11_sx2748840b.1.2  kv=0.208  status=variable model=1 conn=wye kw=5.84   pf=0.97  vminpu=.88
new load.C11_157718b0     phases=2 bus1=C11_sx3142099b.1.2  kv=0.208  status=variable model=1 conn=wye kw=9.73   pf=0.97  vminpu=.88
new load.C11_207286c0     phases=2 bus1=C11_sx3011298c.1.2  kv=0.208  status=variable model=1 conn=wye kw=4.07   pf=0.97  vminpu=.88
new load.C11_207287b0     phases=2 bus1=C11_sx2711234b.1.2  kv=0.208  status=variable model=1 conn=wye kw=9.73   pf=0.97  vminpu=.88
new load.C11_207288b0     phases=2 bus1=C11_sx3198355b.1.2  kv=0.208  status=variable model=1 conn=wye kw=3.89   pf=0.97  vminpu=.88
new load.C11_207290a0     phases=2 bus1=C11_sx2879773a.1.2  kv=0.208  status=variable model=1 conn=wye kw=8.87   pf=0.97  vminpu=.88
new load.C11_207291c0     phases=2 bus1=C11_sx2786274c.1.2  kv=0.208  status=variable model=1 conn=wye kw=10.17  pf=0.97  vminpu=.88
new load.C11_207292c0     phases=2 bus1=C11_sx3179682c.1.2  kv=0.208  status=variable model=1 conn=wye kw=6.10   pf=0.97  vminpu=.88
new load.C11_218472a0     phases=2 bus1=C11_sx2936270a.1.2  kv=0.208  status=variable model=1 conn=wye kw=8.87   pf=0.97  vminpu=.88
new load.C11_218473a0     phases=2 bus1=C11_sx3086078a.1.2  kv=0.208  status=variable model=1 conn=wye kw=8.87   pf=0.97  vminpu=.88
new load.C11_218474a0     phases=2 bus1=C11_sx3217056a.1.2  kv=0.208  status=variable model=1 conn=wye kw=17.74  pf=0.97  vminpu=.88
new load.C11_218475a0     phases=2 bus1=C11_sx3217057a.1.2  kv=0.208  status=variable model=1 conn=wye kw=3.55   pf=0.97  vminpu=.88
new load.C11_223655c0     phases=2 bus1=C11_sx2936268c.1.2  kv=0.208  status=variable model=1 conn=wye kw=6.10   pf=0.97  vminpu=.88
new load.C11_223658a0     phases=2 bus1=C11_sx2823592a.1.2  kv=0.208  status=variable model=1 conn=wye kw=1.77   pf=0.97  vminpu=.88
new load.C11_223660c0     phases=2 bus1=C11_sx3160863c.1.2  kv=0.208  status=variable model=1 conn=wye kw=6.10   pf=0.97  vminpu=.88
new load.C11_223661c0     phases=2 bus1=C11_sx2730108c.1.2  kv=0.208  status=variable model=1 conn=wye kw=6.10   pf=0.97  vminpu=.88
new load.C11_223662c0     phases=2 bus1=C11_sx2786204c.1.2  kv=0.208  status=variable model=1 conn=wye kw=15.26  pf=0.97  vminpu=.88
new load.C11_223663c0     phases=2 bus1=C11_sx2936216c.1.2  kv=0.208  status=variable model=1 conn=wye kw=4.07   pf=0.97  vminpu=.88
new load.C11_247036c0     phases=2 bus1=C11_sx3029498c.1.2  kv=0.208  status=variable model=1 conn=wye kw=4.07   pf=0.97  vminpu=.88
new load.C11_247056a0     phases=2 bus1=C11_sx2991912a.1.2  kv=0.208  status=variable model=1 conn=wye kw=5.32   pf=0.97  vminpu=.88
new load.C11_247057a0     phases=2 bus1=C11_sx3104128a.1.2  kv=0.208  status=variable model=1 conn=wye kw=5.32   pf=0.97  vminpu=.88
new load.C11_247058a0     phases=2 bus1=C11_sx2673315a.1.2  kv=0.208  status=variable model=1 conn=wye kw=3.55   pf=0.97  vminpu=.88
new load.C11_247059a0     phases=2 bus1=C11_sx2766721a.1.2  kv=0.208  status=variable model=1 conn=wye kw=8.87   pf=0.97  vminpu=.88
new load.C11_247060a0     phases=2 bus1=C11_sx2991906a.1.2  kv=0.208  status=variable model=1 conn=wye kw=3.55   pf=0.97  vminpu=.88
new load.C11_247061a0     phases=2 bus1=C11_sx2879054a.1.2  kv=0.208  status=variable model=1 conn=wye kw=8.87   pf=0.97  vminpu=.88
new load.C11_247084b0     phases=2 bus1=C11_sx3254211b.1.2  kv=0.208  status=variable model=1 conn=wye kw=9.73   pf=0.97  vminpu=.88
new load.C11_247100b0     phases=2 bus1=C11_sx2729407b.1.2  kv=0.208  status=variable model=1 conn=wye kw=5.84   pf=0.97  vminpu=.88
new load.C11_247105b0     phases=2 bus1=C11_sx2691942b.1.2  kv=0.208  status=variable model=1 conn=wye kw=5.84   pf=0.97  vminpu=.88
new load.C11_247122b0     phases=2 bus1=C11_sx3197629b.1.2  kv=0.208  status=variable model=1 conn=wye kw=5.84   pf=0.97  vminpu=.88
new load.C11_247126b0     phases=2 bus1=C11_sx2879065b.1.2  kv=0.208  status=variable model=1 conn=wye kw=3.89   pf=0.97  vminpu=.88
new load.C11_247160b0     phases=2 bus1=C11_sx0247160b.1.2  kv=0.208  status=variable model=1 conn=wye kw=5.84   pf=0.97  vminpu=.88
new load.C11_247162b0     phases=2 bus1=C11_sx0247162b.1.2  kv=0.208  status=variable model=1 conn=wye kw=5.84   pf=0.97  vminpu=.88
new load.C11_247164b0     phases=2 bus1=C11_sx2766732b.1.2  kv=0.208  status=variable model=1 conn=wye kw=3.89   pf=0.97  vminpu=.88
new load.C11_247170b0     phases=2 bus1=C11_sx2897784b.1.2  kv=0.208  status=variable model=1 conn=wye kw=14.59  pf=0.97  vminpu=.88
new load.C11_247171b0     phases=2 bus1=C11_sx0247171b.1.2  kv=0.208  status=variable model=1 conn=wye kw=5.84   pf=0.97  vminpu=.88
new load.C11_247184c0     phases=2 bus1=C11_sx2936279c.1.2  kv=0.208  status=variable model=1 conn=wye kw=10.17  pf=0.97  vminpu=.88
new load.C11_247185b0     phases=2 bus1=C11_sx3179678b.1.2  kv=0.208  status=variable model=1 conn=wye kw=5.84   pf=0.97  vminpu=.88
new load.C11_251828b0     phases=2 bus1=C11_sx3179650b.1.2  kv=0.208  status=variable model=1 conn=wye kw=5.84   pf=0.97  vminpu=.88
new load.C11_251855c0     phases=2 bus1=C11_sx2730107c.1.2  kv=0.208  status=variable model=1 conn=wye kw=10.17  pf=0.97  vminpu=.88
new load.C11_251856c0     phases=2 bus1=C11_sx3048888c.1.2  kv=0.208  status=variable model=1 conn=wye kw=6.10   pf=0.97  vminpu=.88
new load.C11_251857c0     phases=2 bus1=C11_sx3064514c.1.2  kv=0.208  status=variable model=1 conn=wye kw=6.10   pf=0.97  vminpu=.88
new load.C11_251858c0     phases=2 bus1=C11_sx2861158c.1.2  kv=0.208  status=variable model=1 conn=wye kw=10.17  pf=0.97  vminpu=.88
new load.C11_251859c0     phases=2 bus1=C11_sx2952007c.1.2  kv=0.208  status=variable model=1 conn=wye kw=10.17  pf=0.97  vminpu=.88
new load.C11_251862c0     phases=2 bus1=C11_sx3254873c.1.2  kv=0.208  status=variable model=1 conn=wye kw=6.10   pf=0.97  vminpu=.88
new load.C11_251863c0     phases=2 bus1=C11_sx2745811c.1.2  kv=0.208  status=variable model=1 conn=wye kw=10.17  pf=0.97  vminpu=.88
new load.C11_251865c0     phases=2 bus1=C11_sx3142050c.1.2  kv=0.208  status=variable model=1 conn=wye kw=6.10   pf=0.97  vminpu=.88
new load.C11_251867c0     phases=2 bus1=C11_sx2861157c.1.2  kv=0.208  status=variable model=1 conn=wye kw=10.17  pf=0.97  vminpu=.88
new load.C11_260457b0     phases=2 bus1=C11_sx3086079b.1.2  kv=0.208  status=variable model=1 conn=wye kw=3.89   pf=0.97  vminpu=.88
new load.C11_260458b0     phases=2 bus1=C11_sx2936276b.1.2  kv=0.208  status=variable model=1 conn=wye kw=3.89   pf=0.97  vminpu=.88
new load.C11_260461b0     phases=2 bus1=C11_sx2861223b.1.2  kv=0.208  status=variable model=1 conn=wye kw=9.73   pf=0.97  vminpu=.88
new load.C11_260463b0     phases=2 bus1=C11_sx3086075b.1.2  kv=0.208  status=variable model=1 conn=wye kw=5.84   pf=0.97  vminpu=.88
new load.C11_260464a0     phases=2 bus1=C11_sx2730187a.1.2  kv=0.208  status=variable model=1 conn=wye kw=13.30  pf=0.97  vminpu=.88
new load.C11_260467a0     phases=2 bus1=C11_sx3104856a.1.2  kv=0.208  status=variable model=1 conn=wye kw=5.32   pf=0.97  vminpu=.88
new load.C11_260473a0     phases=2 bus1=C11_sx2861222a.1.2  kv=0.208  status=variable model=1 conn=wye kw=13.30  pf=0.97  vminpu=.88
new load.C11_260474a0     phases=2 bus1=C11_sx2917330a.1.2  kv=0.208  status=variable model=1 conn=wye kw=8.87   pf=0.97  vminpu=.88
new load.C11_260475a0     phases=2 bus1=C11_sx2879794a.1.2  kv=0.208  status=variable model=1 conn=wye kw=13.30  pf=0.97  vminpu=.88
new load.C11_260476a0     phases=2 bus1=C11_sx2936271a.1.2  kv=0.208  status=variable model=1 conn=wye kw=5.32   pf=0.97  vminpu=.88
new load.C11_260479a0     phases=2 bus1=C11_sx2955074a.1.2  kv=0.208  status=variable model=1 conn=wye kw=13.30  pf=0.97  vminpu=.88
new load.C11_260480c0     phases=2 bus1=C11_sx3030199c.1.2  kv=0.208  status=variable model=1 conn=wye kw=10.17  pf=0.97  vminpu=.88
new load.C11_260481c0     phases=2 bus1=C11_sx2730163c.1.2  kv=0.208  status=variable model=1 conn=wye kw=10.17  pf=0.97  vminpu=.88
new load.C11_260484a0     phases=2 bus1=C11_sx2992624a.1.2  kv=0.208  status=variable model=1 conn=wye kw=5.32   pf=0.97  vminpu=.88
new load.C11_260487a0     phases=2 bus1=C11_sx2692654a.1.2  kv=0.208  status=variable model=1 conn=wye kw=5.32   pf=0.97  vminpu=.88
new load.C11_260488a0     phases=2 bus1=C11_sx2842379a.1.2  kv=0.208  status=variable model=1 conn=wye kw=13.30  pf=0.97  vminpu=.88
new load.C11_260491c0     phases=2 bus1=C11_sx2805031c.1.2  kv=0.208  status=variable model=1 conn=wye kw=15.26  pf=0.97  vminpu=.88
new load.C11_260494b0     phases=2 bus1=C11_sx3068944b.1.2  kv=0.208  status=variable model=1 conn=wye kw=14.59  pf=0.97  vminpu=.88
new load.C11_260495b0     phases=2 bus1=C11_sx2767407b.1.2  kv=0.208  status=variable model=1 conn=wye kw=3.89   pf=0.97  vminpu=.88
new load.C11_260496b0     phases=2 bus1=C11_sx2879767b.1.2  kv=0.208  status=variable model=1 conn=wye kw=3.89   pf=0.97  vminpu=.88
new load.C11_260500b0     phases=2 bus1=C11_sx2711224b.1.2  kv=0.208  status=variable model=1 conn=wye kw=3.89   pf=0.97  vminpu=.88
new load.C11_260501b0     phases=2 bus1=C11_sx3142098b.1.2  kv=0.208  status=variable model=1 conn=wye kw=9.73   pf=0.97  vminpu=.88
new load.C11_260502b0     phases=2 bus1=C11_sx2748839b.1.2  kv=0.208  status=variable model=1 conn=wye kw=3.89   pf=0.97  vminpu=.88
new load.C11_260503b0     phases=2 bus1=C11_sx2917310b.1.2  kv=0.208  status=variable model=1 conn=wye kw=5.84   pf=0.97  vminpu=.88
new load.C11_260505c0     phases=2 bus1=C11_sx2861218c.1.2  kv=0.208  status=variable model=1 conn=wye kw=10.17  pf=0.97  vminpu=.88
new load.C11_260508a0     phases=2 bus1=C11_sx2955081a.1.2  kv=0.208  status=variable model=1 conn=wye kw=5.32   pf=0.97  vminpu=.88
new load.C11_260511c0     phases=2 bus1=C11_sx3160878c.1.2  kv=0.208  status=variable model=1 conn=wye kw=6.10   pf=0.97  vminpu=.88
new load.C11_260513c0     phases=2 bus1=C11_sx2917336c.1.2  kv=0.208  status=variable model=1 conn=wye kw=6.10   pf=0.97  vminpu=.88
new load.C11_260514c0     phases=2 bus1=C11_sx2674047c.1.2  kv=0.208  status=variable model=1 conn=wye kw=6.10   pf=0.97  vminpu=.88
new load.C11_260515a0     phases=2 bus1=C11_sx3160865a.1.2  kv=0.208  status=variable model=1 conn=wye kw=8.87   pf=0.97  vminpu=.88
new load.C11_260517c0     phases=2 bus1=C11_sx2767408c.1.2  kv=0.208  status=variable model=1 conn=wye kw=6.10   pf=0.97  vminpu=.88
new load.C11_260518c0     phases=2 bus1=C11_sx3104853c.1.2  kv=0.208  status=variable model=1 conn=wye kw=10.17  pf=0.97  vminpu=.88
new load.C11_260520b0     phases=2 bus1=C11_sx3254915b.1.2  kv=0.208  status=variable model=1 conn=wye kw=1.95   pf=0.97  vminpu=.88
new load.C11_260521b0     phases=2 bus1=C11_sx3048963b.1.2  kv=0.208  status=variable model=1 conn=wye kw=5.84   pf=0.97  vminpu=.88
new load.C11_260527b0     phases=2 bus1=C11_sx2711226b.1.2  kv=0.208  status=variable model=1 conn=wye kw=9.73   pf=0.97  vminpu=.88
new load.C11_260528c0     phases=2 bus1=C11_sx3217052c.1.2  kv=0.208  status=variable model=1 conn=wye kw=10.17  pf=0.97  vminpu=.88
new load.C11_260529c0     phases=2 bus1=C11_sx3217053c.1.2  kv=0.208  status=variable model=1 conn=wye kw=4.07   pf=0.97  vminpu=.88
new load.C11_260532c0     phases=2 bus1=C11_sx3086074c.1.2  kv=0.208  status=variable model=1 conn=wye kw=6.10   pf=0.97  vminpu=.88
new load.C11_260535c0     phases=2 bus1=C11_sx3067507c.1.2  kv=0.208  status=variable model=1 conn=wye kw=15.26  pf=0.97  vminpu=.88
new load.C11_260542a0     phases=2 bus1=C11_sx2955078a.1.2  kv=0.208  status=variable model=1 conn=wye kw=8.87   pf=0.97  vminpu=.88
new load.C11_260543c0     phases=2 bus1=C11_sx2955077c.1.2  kv=0.208  status=variable model=1 conn=wye kw=10.17  pf=0.97  vminpu=.88
new load.C11_260551c0     phases=2 bus1=C11_sx3160872c.1.2  kv=0.208  status=variable model=1 conn=wye kw=15.26  pf=0.97  vminpu=.88
new load.C11_260552a0     phases=2 bus1=C11_sx3198348a.1.2  kv=0.208  status=variable model=1 conn=wye kw=17.74  pf=0.97  vminpu=.88
new load.C11_260553c0     phases=2 bus1=C11_sx2711225c.1.2  kv=0.208  status=variable model=1 conn=wye kw=6.10   pf=0.97  vminpu=.88
new load.C11_260554c0     phases=2 bus1=C11_sx3030200c.1.2  kv=0.208  status=variable model=1 conn=wye kw=6.10   pf=0.97  vminpu=.88
new load.C11_260555a0     phases=2 bus1=C11_sx3048962a.1.2  kv=0.208  status=variable model=1 conn=wye kw=13.30  pf=0.97  vminpu=.88
new load.C11_260558c0     phases=2 bus1=C11_sx3160861c.1.2  kv=0.208  status=variable model=1 conn=wye kw=4.07   pf=0.97  vminpu=.88
new load.C11_260561c0     phases=2 bus1=C11_sx3104850c.1.2  kv=0.208  status=variable model=1 conn=wye kw=10.17  pf=0.97  vminpu=.88
new load.C11_260562a0     phases=2 bus1=C11_sx3251799a.1.2  kv=0.208  status=variable model=1 conn=wye kw=13.30  pf=0.97  vminpu=.88
new load.C11_260567c0     phases=2 bus1=C11_sx2936211c.1.2  kv=0.208  status=variable model=1 conn=wye kw=6.10   pf=0.97  vminpu=.88
new load.C11_260568c0     phases=2 bus1=C11_sx2842329c.1.2  kv=0.208  status=variable model=1 conn=wye kw=6.10   pf=0.97  vminpu=.88
new load.C11_260569c0     phases=2 bus1=C11_sx3104796c.1.2  kv=0.208  status=variable model=1 conn=wye kw=10.17  pf=0.97  vminpu=.88
new load.C11_260572c0     phases=2 bus1=C11_sx3236004c.1.2  kv=0.208  status=variable model=1 conn=wye kw=6.10   pf=0.97  vminpu=.88
new load.C11_260573c0     phases=2 bus1=C11_sx3160896c.1.2  kv=0.208  status=variable model=1 conn=wye kw=6.10   pf=0.97  vminpu=.88
new load.C11_260574c0     phases=2 bus1=C11_sx3123452c.1.2  kv=0.208  status=variable model=1 conn=wye kw=10.17  pf=0.97  vminpu=.88
new load.C11_260575b0     phases=2 bus1=C11_sx3254869b.1.2  kv=0.208  status=variable model=1 conn=wye kw=5.84   pf=0.97  vminpu=.88
new load.C11_260576c0     phases=2 bus1=C11_sx3030126c.1.2  kv=0.208  status=variable model=1 conn=wye kw=10.17  pf=0.97  vminpu=.88
new load.C11_260577c0     phases=2 bus1=C11_sx2767341c.1.2  kv=0.208  status=variable model=1 conn=wye kw=15.26  pf=0.97  vminpu=.88
new load.C11_260581c0     phases=2 bus1=C11_sx3254870c.1.2  kv=0.208  status=variable model=1 conn=wye kw=10.17  pf=0.97  vminpu=.88
new load.C11_260586b0     phases=2 bus1=C11_sx3048887b.1.2  kv=0.208  status=variable model=1 conn=wye kw=14.59  pf=0.97  vminpu=.88
new load.C11_260589b0     phases=2 bus1=C11_sx2955005b.1.2  kv=0.208  status=variable model=1 conn=wye kw=5.84   pf=0.97  vminpu=.88
new load.C11_260590b0     phases=2 bus1=C11_sx3216988b.1.2  kv=0.208  status=variable model=1 conn=wye kw=9.73   pf=0.97  vminpu=.88
new load.C11_260591b0     phases=2 bus1=C11_sx3179607b.1.2  kv=0.208  status=variable model=1 conn=wye kw=9.73   pf=0.97  vminpu=.88
new load.C11_260594a0     phases=2 bus1=C11_sx2898457a.1.2  kv=0.208  status=variable model=1 conn=wye kw=3.55   pf=0.97  vminpu=.88
new load.C11_260595a0     phases=2 bus1=C11_sx2767340a.1.2  kv=0.208  status=fixed    model=1 conn=wye kw=26.60  pf=0.97  vminpu=.88
new load.C11_260595b0     phases=2 bus1=C11_sx2767340b.1.2  kv=0.208  status=fixed    model=1 conn=wye kw=29.18  pf=0.97  vminpu=.88
new load.C11_260595c0     phases=2 bus1=C11_sx2767340c.1.2  kv=0.208  status=fixed    model=1 conn=wye kw=30.52  pf=0.97  vminpu=.88
new load.C11_260598a0     phases=2 bus1=C11_sx3067478a.1.2  kv=0.208  status=variable model=1 conn=wye kw=13.30  pf=0.97  vminpu=.88
new load.C11_260601c0     phases=2 bus1=C11_sx2730149c.1.2  kv=0.208  status=variable model=1 conn=wye kw=6.10   pf=0.97  vminpu=.88
new load.C11_260602b0     phases=2 bus1=C11_sx2989566b.1.2  kv=0.208  status=variable model=1 conn=wye kw=5.84   pf=0.97  vminpu=.88
new load.C11_260605a0     phases=2 bus1=C11_sx2973791a.1.2  kv=0.208  status=variable model=1 conn=wye kw=17.74  pf=0.97  vminpu=.88
new load.C11_260607b0     phases=2 bus1=C11_sx3029055b.1.2  kv=0.208  status=variable model=1 conn=wye kw=14.59  pf=0.97  vminpu=.88
new load.C11_260620c0     phases=2 bus1=C11_sx3067506c.1.2  kv=0.208  status=variable model=1 conn=wye kw=4.07   pf=0.97  vminpu=.88
...
													              
